data/9-bus.dss
Clear
New Circuit.3Bus_example
!  define a really stiff source
~ basekv=0.4   pu=0.9959  MVAsc1=1e6  MVAsc3=1e6 basemva=0.5

!Define Linecodes


New linecode.556MCM nphases=3 basefreq=50  ! ohms per 5 mile
~ rmatrix = ( 0.1000 | 0.0400    0.1000 |  0.0400    0.0400    0.1000)
~ xmatrix = ( 0.0583 |  0.0233    0.0583 | 0.0233    0.0233    0.0583)
~ cmatrix = (50.92958178940651  | -0  50.92958178940651 | -0 -0 50.92958178940651  ) ! small capacitance


New linecode.4/0QUAD nphases=3 basefreq=50  ! ohms per 100ft
~ rmatrix = ( 0.1167 | 0.0467    0.1167 | 0.0467    0.0467    0.1167)
~ xmatrix = (0.0667  |  0.0267    0.0667  |  0.0267    0.0267    0.0667 )
~ cmatrix = (50.92958178940651  | -0  50.92958178940651 | -0 -0 50.92958178940651  )  ! small capacitance

!Define lines

New Line.OHLine1  bus1=sourcebus.1.2.3  bus4.1.2.3  linecode = 556MCM   length=1
New Line.OHLine2    Bus1=bus2.1.2.3  bus8.1.2.3  linecode = 556MCM  length=1
New Line.OHLine3    Bus1=bus3.1.2.3  bus6.1.2.3  linecode = 556MCM  length=1
New Line.Quad1   Bus1=bus4.1.2.3 bus5.1.2.3  linecode = 4/0QUAD length=1
New Line.Quad2   Bus1=bus4.1.2.3 bus9.1.2.3  linecode = 4/0QUAD length=1
New Line.Quad3   Bus1=bus9.1.2.3 bus8.1.2.3  linecode = 4/0QUAD length=1
New Line.Quad4   Bus1=bus8.1.2.3 bus7.1.2.3  linecode = 4/0QUAD length=1
New Line.Quad5   Bus1=bus7.1.2.3 bus6.1.2.3  linecode = 4/0QUAD length=1
New Line.Quad6   Bus1=bus6.1.2.3 bus5.1.2.3  linecode = 4/0QUAD length=1


New generator.gen1 bus1=bus2.1.2.3 phases=3 Kv=.4 kW=60 pf=.95 status=fixed forceON=yes
New generator.gen2 bus1=bus3.1.2.3 phases=3 Kv=.4 kW=60 pf=.95 status=fixed forceON=yes
!Loads - single phase

New Load.L1 phases=1  bus5.1.0   ( 0.4 3 sqrt / )   kW=6   kvar=3  model=1
New Load.L2 phases=1  bus5.2.0   ( 0.4 3 sqrt / )   kW=6   kvar=3  model=1
New Load.L3 phases=1  bus5.3.0   ( 0.4 3 sqrt / )   kW=6   kvar=3  model=1

New Load.L4 phases=1  bus9.1.0   ( 0.4 3 sqrt / )   kW=6   kvar=3  model=1
New Load.L5 phases=1  bus9.2.0   ( 0.4 3 sqrt / )   kW=6   kvar=3  model=1
New Load.L6 phases=1  bus9.3.0   ( 0.4 3 sqrt / )   kW=6   kvar=3  model=1

New Load.L7 phases=1  bus7.1.0   ( 0.4 3 sqrt / )   kW=6   kvar=3  model=1
New Load.L8 phases=1  bus7.2.0   ( 0.4 3 sqrt / )   kW=6   kvar=3  model=1
New Load.L9 phases=1  bus7.3.0   ( 0.4 3 sqrt / )   kW=6   kvar=3  model=1


Set voltagebases=[0.4]
Set tolerance=0.000001
set defaultbasefreq=50
Calcvoltagebases

Solve
